data_COF-999
_audit_creation_method         'generated by CrystalMaker X for Windows'
_cell_length_a                  45.083700
_cell_length_b                  45.083700
_cell_length_c                   3.818800
_cell_angle_alpha               90.000000
_cell_angle_beta                90.000000
_cell_angle_gamma              120.000000

_symmetry_space_group_name_H-M     'P 1'

loop_
_symmetry_equiv_pos_as_xyz
'+x,+y,+z'

loop_
_atom_site_label
_atom_site_type_symbol
_atom_site_occupancy
_atom_site_fract_x
_atom_site_fract_y
_atom_site_fract_z
_atom_site_U_iso_or_equiv
 C1  C 1.0  0.51867  0.01172  0.25789  0.01267
 C2  C 1.0  0.99336  0.01382  0.29776  0.01267
 C3  C 1.0  0.99364  0.48296  0.27507  0.01267
 C4  C 1.0  0.48104  0.99362  0.2572  0.01267
 C5  C 1.0  0.01101  0.99387  0.2954  0.01267
 C6  C 1.0  0.0129  0.52057  0.26718  0.01267
 C7  C 1.0  0.53561  0.99388  0.35246  0.01267
 C8  C 1.0  0.01163  0.04883  0.38324  0.01267
 C9  C 1.0  0.95897  0.46595  0.3739  0.01267
 C10  C 1.0  0.46377  0.01101  0.35699  0.01267
 C11  C 1.0  0.99322  0.95922  0.39594  0.01267
 C12  C 1.0  0.04751  0.53821  0.36818  0.01267
 C13  C 1.0  0.57115  0.01076  0.37931  0.01267
 C14  C 1.0  0.99501  0.06774  0.41172  0.01267
 C15  C 1.0  0.94074  0.43047  0.40552  0.01267
 C16  C 1.0  0.42823  0.99358  0.38511  0.01267
 C17  C 1.0  0.01015  0.9406  0.41919  0.01267
 C18  C 1.0  0.06538  0.5738  0.38895  0.01267
 C19  C 1.0  0.59116  0.04653  0.31393  0.01267
 C20  C 1.0  0.95903  0.05185  0.35902  0.01267
 C21  C 1.0  0.95665  0.41065  0.33755  0.01267
 C22  C 1.0  0.40863  0.95789  0.31396  0.01267
 C23  C 1.0  0.0457  0.95611  0.34374  0.01267
 C24  C 1.0  0.04909  0.59301  0.30895  0.01267
 C25  C 1.0  0.57379  0.06367  0.20708  0.01267
 C26  C 1.0  0.9415  0.01715  0.25855  0.01267
 C27  C 1.0  0.99108  0.42808  0.22904  0.01267
 C28  C 1.0  0.42629  0.94126  0.20105  0.01267
 C29  C 1.0  0.06273  0.99042  0.23139  0.01267
 C30  C 1.0  0.01484  0.57494  0.19516  0.01267
 C31  C 1.0  0.5384  0.04677  0.17929  0.01267
 C32  C 1.0  0.95815  0.99849  0.22781  0.01267
 C33  C 1.0  0.00926  0.46346  0.19881  0.01267
 C34  C 1.0  0.46167  0.95866  0.17295  0.01267
 C35  C 1.0  0.04583  0.00891  0.20686  0.01267
 C36  C 1.0  0.99708  0.53951  0.17453  0.01267
 C37  C 1.0  0.6279  0.06309  0.34974  0.01267
 C38  C 1.0  0.94227  0.07181  0.39541  0.01267
 C39  C 1.0  0.93633  0.37395  0.37204  0.01267
 C40  C 1.0  0.37189  0.94094  0.35035  0.01267
 C41  C 1.0  0.06209  0.93577  0.37587  0.01267
 C42  C 1.0  0.06859  0.62979  0.34105  0.01267
 C43  C 1.0  0.65036  0.09641  0.43752  0.01267
 C44  C 1.0  0.90881  0.06044  0.48259  0.01267
 C45  C 1.0  0.94676  0.35114  0.45694  0.01267
 C46  C 1.0  0.34972  0.90748  0.43498  0.01267
 C47  C 1.0  0.09544  0.94646  0.45949  0.01267
 C48  C 1.0  0.05694  0.65172  0.42306  0.01267
 C49  C 1.0  0.68778  0.11102  0.44834  0.01267
 C50  C 1.0  0.8933  0.08247  0.48343  0.01267
 C51  C 1.0  0.92324  0.31385  0.46766  0.01267
 C52  C 1.0  0.31229  0.89266  0.44771  0.01267
 C53  C 1.0  0.10969  0.92334  0.46935  0.01267
 C54  C 1.0  0.0793  0.68917  0.43478  0.01267
 C55  C 1.0  0.63801  0.11847  0.55027  0.01267
 C56  C 1.0  0.88726  0.02616  0.60234  0.01267
 C57  C 1.0  0.9811  0.36287  0.56772  0.01267
 C58  C 1.0  0.36239  0.88556  0.54329  0.01267
 C59  C 1.0  0.11782  0.9809  0.56939  0.01267
 C60  C 1.0  0.02232  0.63876  0.53186  0.01267
 C61  C 1.0  0.70359  0.09373  0.30244  0.01267
 C62  C 1.0  0.90996  0.11526  0.33057  0.01267
 C63  C 1.0  0.89023  0.2988  0.32067  0.01267
 C64  C 1.0  0.29633  0.90986  0.3031  0.01267
 C65  C 1.0  0.09209  0.89028  0.323  0.01267
 C66  C 1.0  0.11242  0.70531  0.28957  0.01267
 C67  C 1.0  0.7388  0.10765  0.31791  0.01267
 C68  C 1.0  0.89516  0.13578  0.33589  0.01267
 C69  C 1.0  0.86824  0.26369  0.33512  0.01267
 C70  C 1.0  0.26112  0.89583  0.32079  0.01267
 C71  C 1.0  0.10574  0.86875  0.33658  0.01267
 C72  C 1.0  0.13347  0.74052  0.3086  0.01267
 C73  C 1.0  0.76007  0.13955  0.4775  0.01267
 C74  C 1.0  0.86295  0.12459  0.49095  0.01267
 C75  C 1.0  0.87818  0.24186  0.49398  0.01267
 C76  C 1.0  0.24007  0.86391  0.48076  0.01267
 C77  C 1.0  0.13767  0.87915  0.49422  0.01267
 C78  C 1.0  0.1225  0.7614  0.47092  0.01267
 C79  C 1.0  0.74425  0.15691  0.6197  0.01267
 C80  C 1.0  0.84612  0.09166  0.63807  0.01267
 C81  C 1.0  0.91119  0.25696  0.63928  0.01267
 C82  C 1.0  0.256  0.84663  0.62142  0.01267
 C83  C 1.0  0.15523  0.91219  0.63889  0.01267
 C84  C 1.0  0.08926  0.74527  0.61127  0.01267
 C85  C 1.0  0.70898  0.14307  0.60495  0.01267
 C86  C 1.0  0.86088  0.071  0.63418  0.01267
 C87  C 1.0  0.9333  0.2921  0.62559  0.01267
 C88  C 1.0  0.29129  0.8606  0.60475  0.01267
 C89  C 1.0  0.14166  0.93386  0.62601  0.01267
 C90  C 1.0  0.06807  0.70998  0.59291  0.01267
 C91  C 1.0  0.79756  0.15433  0.48873  0.01267
 C92  C 1.0  0.84765  0.14683  0.49492  0.01267
 C93  C 1.0  0.85517  0.20444  0.49771  0.01267
 C94  C 1.0  0.20259  0.84902  0.49166  0.01267
 C95  C 1.0  0.15243  0.85643  0.49794  0.01267
 C96  C 1.0  0.14503  0.79887  0.4862  0.01267
 C97  C 1.0  0.81949  0.18993  0.49253  0.01267
 C98  C 1.0  0.81209  0.13314  0.49083  0.01267
 C99  C 1.0  0.86874  0.18248  0.49925  0.01267
 C100  C 1.0  0.18072  0.81346  0.48747  0.01267
 C101  C 1.0  0.18802  0.87012  0.49779  0.01267
 C102  C 1.0  0.13133  0.82074  0.4928  0.01267
 C103  C 1.0  0.56979  0.95835  0.51916  0.01267
 C104  C 1.0  0.04822  0.11993  0.49661  0.01267
 H105  H 1.0  0.88878  0.43022  0.55335  0.01267
 C106  C 1.0  0.42756  0.0451  0.53051  0.01267
 C107  C 1.0  0.95828  0.8886  0.56502  0.01267
 H108  H 1.0  0.11694  0.57466  0.55986  0.01267
 C109  C 1.0  0.59423  0.94553  0.60763  0.01267
 C110  C 1.0  0.06131  0.15773  0.56058  0.01267
 C112  C 1.0  0.40136  0.05556  0.62266  0.01267
 C113  C 1.0  0.94798  0.852  0.65795  0.01267
 C115  C 1.0  0.57611  0.90648  0.58849  0.01267
 C116  C 1.0  0.10005  0.17911  0.50463  0.01267
 C118  C 1.0  0.41617  0.09426  0.59995  0.01267
 C119  C 1.0  0.90934  0.8276  0.64207  0.01267
 C121  C 1.0  0.5991  0.89148  0.6704  0.01267
 C122  C 1.0  0.11517  0.21756  0.56437  0.01267
 C124  C 1.0  0.38994  0.10531  0.6819  0.01267
 C125  C 1.0  0.89934  0.79066  0.72777  0.01267
 C127  C 1.0  0.58059  0.85264  0.62507  0.01267
 C128  C 1.0  0.15356  0.23799  0.48657  0.01267
 C130  C 1.0  0.40378  0.14354  0.62667  0.01267
 C131  C 1.0  0.86121  0.76532  0.68259  0.01267
 C133  C 1.0  0.60359  0.83731  0.68467  0.01267
 C134  C 1.0  0.1696  0.27653  0.53918  0.01267
 C136  C 1.0  0.37715  0.15429  0.69333  0.01267
 C137  C 1.0  0.85192  0.72838  0.75371  0.01267
 H139  H 1.0  0.06622  0.88087  0.19089  0.01267
 H140  H 1.0  0.12226  0.68938  0.15393  0.01267
 H141  H 1.0  0.3124  0.93569  0.16908  0.01267
 H142  H 1.0  0.93599  0.12526  0.2001  0.01267
 H143  H 1.0  0.88121  0.31552  0.18722  0.01267
 H144  H 1.0  0.68739  0.06789  0.16901  0.01267
 H145  H 1.0  0.10229  0.80888  0.49394  0.01267
 H146  H 1.0  0.19259  0.79628  0.48506  0.01267
 H147  H 1.0  0.20519  0.89915  0.5028  0.01267
 H148  H 1.0  0.89767  0.19353  0.50414  0.01267
 H149  H 1.0  0.80769  0.20716  0.49131  0.01267
 H150  H 1.0  0.79486  0.10411  0.48922  0.01267
 H151  H 1.0  0.95019  0.90033  0.78324  0.01267
 H153  H 1.0  0.44742  0.0533  0.74837  0.01267
 H154  H 1.0  0.05823  0.10955  0.71027  0.01267
 H156  H 1.0  0.55024  0.95118  0.73873  0.01267
 H157  H 1.0  0.94543  0.88892  0.309  0.01267
 H159  H 1.0  0.44071  0.05781  0.27399  0.01267
 H160  H 1.0  0.05754  0.11649  0.23036  0.01267
 H162  H 1.0  0.55598  0.94617  0.26362  0.01267
 H163  H 1.0  0.95736  0.8515  0.93398  0.01267
 H165  H 1.0  0.39176  0.0467  0.90048  0.01267
 H166  H 1.0  0.05502  0.16138  0.84085  0.01267
 H168  H 1.0  0.60464  0.95416  0.88358  0.01267
 H169  H 1.0  0.9605  0.84212  0.46699  0.01267
 H171  H 1.0  0.37881  0.04281  0.43377  0.01267
 H172  H 1.0  0.04823  0.16715  0.37168  0.01267
 H174  H 1.0  0.61643  0.95664  0.41372  0.01267
 H175  H 1.0  0.89984  0.8285  0.36778  0.01267
 H177  H 1.0  0.42656  0.10317  0.32446  0.01267
 H178  H 1.0  0.10612  0.17492  0.22532  0.01267
 H180  H 1.0  0.56512  0.89808  0.31406  0.01267
 H181  H 1.0  0.89606  0.83609  0.83899  0.01267
 H183  H 1.0  0.43807  0.10758  0.79529  0.01267
 H184  H 1.0  0.11359  0.17021  0.69363  0.01267
 H186  H 1.0  0.55414  0.89502  0.78503  0.01267
 H187  H 1.0  0.90685  0.78946  1.01025  0.01267
 H189  H 1.0  0.38142  0.09864  0.966  0.01267
 H190  H 1.0  0.11072  0.22205  0.84853  0.01267
 H192  H 1.0  0.60854  0.89807  0.95204  0.01267
 H193  H 1.0  0.91379  0.78208  0.54749  0.01267
 H195  H 1.0  0.36669  0.09089  0.5044  0.01267
 H196  H 1.0  0.10182  0.22752  0.38578  0.01267
 H198  H 1.0  0.62213  0.90312  0.48681  0.01267
 H199  H 1.0  0.85341  0.76726  0.40331  0.01267
 H201  H 1.0  0.41339  0.15043  0.34586  0.01267
 H202  H 1.0  0.15791  0.23298  0.20386  0.01267
 H204  H 1.0  0.56967  0.84602  0.34854  0.01267
 H205  H 1.0  0.84594  0.77204  0.87234  0.01267
 H207  H 1.0  0.42609  0.15877  0.81316  0.01267
 H208  H 1.0  0.16767  0.22903  0.66694  0.01267
 H210  H 1.0  0.55859  0.84017  0.82058  0.01267
 H211  H 1.0  0.85929  0.7262  0.03414  0.01267
 H213  H 1.0  0.3681  0.14833  0.97664  0.01267
 H214  H 1.0  0.16623  0.28188  0.82385  0.01267
 H216  H 1.0  0.61522  0.84447  0.95804  0.01267
 H217  H 1.0  0.86657  0.72074  0.56534  0.01267
 H219  H 1.0  0.35436  0.13945  0.51115  0.01267
 H220  H 1.0  0.15631  0.28666  0.3619  0.01267
 H222  H 1.0  0.62504  0.84797  0.48206  0.01267
 H223  H 1.0  0.4165  0.20562  0.76742  0.01267
 H224  H 1.0  0.55805  0.78988  0.76321  0.01267
 H225  H 1.0  0.80794  0.70612  0.42986  0.01267
 H227  H 1.0  0.37364  0.19928  0.72748  0.01267
 H228  H 1.0  0.21643  0.27683  0.49849  0.01267
 H230  H 1.0  0.58196  0.79254  0.37141  0.01267
 H231  H 1.0  0.09103  0.84198  0.21848  0.01267
 H232  H 1.0  0.1603  0.75317  0.19131  0.01267
 H233  H 1.0  0.24864  0.91021  0.20426  0.01267
 H234  H 1.0  0.9091  0.16237  0.2129  0.01267
 H235  H 1.0  0.8415  0.25198  0.21681  0.01267
 H236  H 1.0  0.75113  0.09319  0.19979  0.01267
 H237  H 1.0  0.18115  0.92169  0.77016  0.01267
 H238  H 1.0  0.07921  0.76118  0.74342  0.01267
 H239  H 1.0  0.23994  0.82063  0.75239  0.01267
 H240  H 1.0  0.81985  0.08141  0.76376  0.01267
 H241  H 1.0  0.9203  0.24028  0.77187  0.01267
 H242  H 1.0  0.76042  0.18289  0.75054  0.01267
 H243  H 1.0  0.15649  0.96065  0.74358  0.01267
 H244  H 1.0  0.04112  0.69747  0.70711  0.01267
 H245  H 1.0  0.30365  0.84603  0.71945  0.01267
 H246  H 1.0  0.8463  0.04438  0.75576  0.01267
 H247  H 1.0  0.95995  0.30326  0.74482  0.01267
 H248  H 1.0  0.69677  0.15773  0.72092  0.01267
 H249  H 1.0  0.04676  0.90695  0.32909  0.01267
 H250  H 1.0  0.09745  0.64396  0.29573  0.01267
 H251  H 1.0  0.35791  0.95584  0.30656  0.01267
 H252  H 1.0  0.95726  0.10065  0.3496  0.01267
 H253  H 1.0  0.9075  0.36043  0.32603  0.01267
 H254  H 1.0  0.64158  0.04796  0.30255  0.01267
 H255  H 1.0  0.09101  0.00356  0.15827  0.01267
 H256  H 1.0  0.00116  0.58945  0.11766  0.01267
 H257  H 1.0  0.41148  0.9129  0.13046  0.01267
 H258  H 1.0  0.91289  0.00373  0.20023  0.01267
 H259  H 1.0  0.00457  0.41309  0.16396  0.01267
 H260  H 1.0  0.58885  0.09213  0.14098  0.01267
 H261  H 1.0  0.06049  0.03664  0.11362  0.01267
 H262  H 1.0  0.96933  0.52545  0.08159  0.01267
 H263  H 1.0  0.47538  0.9446  0.08062  0.01267
 H264  H 1.0  0.94304  0.97047  0.14496  0.01267
 H265  H 1.0  0.03717  0.47701  0.11131  0.01267
 H266  H 1.0  0.52504  0.06133  0.09197  0.01267
 H267  H 1.0  0.96472  0.94619  0.45911  0.01267
 H268  H 1.0  0.06114  0.52336  0.43375  0.01267
 H269  H 1.0  0.47889  0.03963  0.41562  0.01267
 H270  H 1.0  0.04043  0.0621  0.43027  0.01267
 H271  H 1.0  0.94558  0.48124  0.42878  0.01267
 H272  H 1.0  0.52023  0.96522  0.40824  0.01267
 H273  H 1.0  0.80042  0.71234  0.88321  0.01267
 H293  H 1.0  0.2199  0.31725  0.62313  .  
 N275  N 1.0  0.62899  0.1369  0.66076  0.01267
 N276  N 1.0  0.86912  0.99892  0.71929  0.01267
 N277  N 1.0  0.00854  0.37149  0.6758  0.01267
 N278  N 1.0  0.37171  0.86723  0.64964  0.01267
 N279  N 1.0  0.13647  0.00843  0.67653  0.01267
 N280  N 1.0  0.99469  0.62924  0.63971  0.01267
 N281  N 1.0  0.58407  0.79976  0.65199  0.01267
 N282  N 1.0  0.2061  0.2943  0.45379  0.01267
 N284  N 1.0  0.39161  0.19111  0.62904  0.01267
 N285  N 1.0  0.81505  0.70485  0.70547  0.01267
 O287  O 1.0  0.58882  0.99478  0.48141  0.01267
 O288  O 1.0  0.0115  0.10173  0.50274  0.01267
 O289  O 1.0  0.90743  0.41243  0.51516  0.01267
 O290  O 1.0  0.40995  0.00863  0.49455  0.01267
 O291  O 1.0  0.99475  0.90725  0.5283  0.01267
 O292  O 1.0  0.09866  0.59251  0.49957  0.01267

